Version 4
SHEET 1 1812 680
WIRE -176 -208 -624 -208
WIRE -80 -208 -176 -208
WIRE 448 -208 -80 -208
WIRE 1184 -208 736 -208
WIRE 1280 -208 1184 -208
WIRE 1808 -208 1280 -208
WIRE -176 -112 -176 -208
WIRE 1184 -112 1184 -208
WIRE 96 -16 0 -16
WIRE 448 -16 448 -208
WIRE 448 -16 320 -16
WIRE 1456 -16 1360 -16
WIRE 1808 -16 1808 -208
WIRE 1808 -16 1680 -16
WIRE -624 32 -624 -208
WIRE 736 32 736 -208
WIRE -176 48 -176 -48
WIRE 96 48 -176 48
WIRE 1184 48 1184 -48
WIRE 1456 48 1184 48
WIRE -224 96 -336 96
WIRE 1136 96 1024 96
WIRE -224 112 -224 96
WIRE 96 112 -224 112
WIRE 448 112 320 112
WIRE 1136 112 1136 96
WIRE 1456 112 1136 112
WIRE 1808 112 1680 112
WIRE -80 176 -80 -208
WIRE 96 176 -80 176
WIRE 1280 176 1280 -208
WIRE 1456 176 1280 176
WIRE -624 240 -624 112
WIRE -336 240 -336 96
WIRE 736 240 736 112
WIRE 1024 240 1024 96
WIRE -176 336 -176 48
WIRE 448 336 448 112
WIRE 448 336 -176 336
WIRE 1184 336 1184 48
WIRE 1808 336 1808 112
WIRE 1808 336 1184 336
WIRE -176 352 -176 336
WIRE 1184 352 1184 336
FLAG -176 432 0
FLAG 0 -16 0
FLAG -336 240 out
FLAG -624 240 0
FLAG 1184 432 0
FLAG 1360 -16 0
FLAG 1024 240 out1
FLAG 736 240 0
SYMBOL voltage -624 16 R0
WINDOW 123 0 0 Left 0
WINDOW 39 0 0 Left 0
SYMATTR InstName V1
SYMATTR Value 9
SYMBOL Misc\\NE555 208 80 R0
SYMATTR InstName U1
SYMBOL cap -192 -112 R0
SYMATTR InstName C1
SYMATTR Value 100µ
SYMBOL res -192 336 R0
SYMATTR InstName R1
SYMATTR Value 16k
SYMBOL voltage 736 16 R0
WINDOW 123 0 0 Left 0
WINDOW 39 0 0 Left 0
SYMATTR InstName V2
SYMATTR Value 9
SYMBOL Misc\\NE555 1568 80 R0
SYMATTR InstName U2
SYMBOL cap 1168 -112 R0
SYMATTR InstName C2
SYMATTR Value 100µ
SYMBOL res 1168 336 R0
SYMATTR InstName R2
SYMATTR Value 18k
TEXT -16 256 Left 2 !.tran 10 startup
TEXT 1344 256 Left 2 !;tran 10 startup
